test_networks/ieee123C_1ph/Master.dss
Clear

New Circuit.ieee123C_1ph  

! Source at 1.05 pu: the value every OPF built from this system fixes for the
! substation voltage. (The file said 1.03 until 2026-10-06.)
Edit "Vsource.source" bus1=1 pu=1.05 R0=0 X0=0.00000001 phases=1 basekv=2.4018 R1=0 X1=0.00000001

Redirect BranchData.dss

Redirect ../LoadShapeDefault.dss
Redirect ../LoadShapePVDefault.dss
Redirect Loads.dss     ! Balanced Loads
// Redirect  Capacitor.dss
Redirect PVSystem.dss
Redirect Storage.dss

Set VoltageBases = [4.16]
Set mode = Daily 
Set stepsize = 1h
Set number = 1

! Let DSS estimate the voltage bases
CalcVoltageBases     ! This also establishes the bus list
